$RuOBSD$
--- include/defaults.h.orig	Fri Dec  9 11:52:49 2005
+++ include/defaults.h	Wed Dec 21 16:55:07 2005
@@ -47,14 +47,22 @@
  * AUTOMODPATH = directory for autoloaded modules
  */
 
+#ifndef IRCD_USER
+#define IRCD_USER   "ircd"
+#endif
+
+#ifndef SYSCONFDIR
+#define SYSCONFDIR  "/etc"
+#endif
+
 /* dirs */
 #define DPATH       IRCD_PREFIX                                                     
-#define BINPATH     IRCD_PREFIX "/bin/"
-#define MSGPATH     IRCD_PREFIX "/messages/"
-#define ETCPATH     IRCD_PREFIX "/etc"
-#define LOGPATH     IRCD_PREFIX "/logs"
-#define MODPATH     IRCD_PREFIX "/modules/"
-#define AUTOMODPATH IRCD_PREFIX "/modules/autoload/"
+#define BINPATH     IRCD_PREFIX "/libexec/"
+#define MSGPATH     IRCD_PREFIX "/share/ircd/messages/"
+#define ETCPATH     SYSCONFDIR "/ircd"
+#define LOGPATH     ETCPATH "/logs"
+#define MODPATH     IRCD_PREFIX "/share/ircd/modules/"
+#define AUTOMODPATH SYSCONFDIR "/ircd/autoload/"
 
 /* files */
 #define SPATH   BINPATH "/ircd"                 /* ircd executable */
@@ -70,7 +78,7 @@
 #define RKPATH  ETCPATH "/rkline.conf"
 #define MPATH   ETCPATH "/ircd.motd"            /* MOTD file */
 #define LPATH   LOGPATH "/ircd.log"             /* ircd logfile */
-#define PPATH   ETCPATH "/ircd.pid"             /* pid file */
+#define PPATH   LOGPATH "/ircd.pid"             /* pid file */
 #define OPATH   ETCPATH "/opers.motd"           /* oper MOTD file */
 #define LIPATH  ETCPATH "/links.txt"            /* cached links file */
 
